Version 4
SHEET 1 976 680
WIRE 320 -416 -192 -416
WIRE 656 -416 320 -416
WIRE 384 -368 240 -368
WIRE 464 -368 384 -368
WIRE 656 -368 656 -416
WIRE 464 -336 464 -368
WIRE -480 -320 -592 -320
WIRE -192 -320 -192 -416
WIRE -192 -320 -304 -320
WIRE 384 -320 384 -368
WIRE 656 -272 656 -288
WIRE -480 -240 -592 -240
WIRE -224 -240 -304 -240
WIRE 320 -224 320 -416
WIRE 240 -208 240 -368
WIRE 240 -208 192 -208
WIRE 288 -208 240 -208
WIRE 384 -192 384 -256
WIRE 384 -192 352 -192
WIRE 464 -192 464 -256
WIRE 464 -192 384 -192
WIRE 512 -192 464 -192
WIRE 688 -192 592 -192
WIRE 816 -192 688 -192
WIRE -224 -176 -224 -240
WIRE -176 -176 -224 -176
WIRE -32 -176 -96 -176
WIRE 80 -176 -32 -176
WIRE 288 -176 80 -176
WIRE -592 -160 -592 -240
WIRE -32 -112 -32 -176
WIRE 80 -112 80 -176
WIRE 192 -112 192 -208
WIRE 688 -112 688 -192
WIRE -32 16 -32 -48
WIRE 80 16 80 -32
WIRE 80 16 -32 16
WIRE 192 16 192 -32
WIRE 192 16 80 16
WIRE 320 16 320 -160
WIRE 320 16 192 16
WIRE 688 16 688 -48
WIRE 688 16 320 16
WIRE 320 48 320 16
WIRE 688 48 688 16
WIRE 0 0 0 0
FLAG 656 -272 0
FLAG 688 48 0
FLAG 320 48 0
FLAG 816 -192 ADC
FLAG -592 -160 0
SYMBOL res -80 -192 R90
WINDOW 0 -7 53 VBottom 2
WINDOW 3 32 56 VTop 2
SYMATTR InstName R5
SYMATTR Value 10k
SYMBOL cap -48 -112 R0
SYMATTR InstName C1
SYMATTR Value 100n
SYMBOL cap 672 -112 R0
SYMATTR InstName C2
SYMATTR Value 100n
SYMBOL res 64 -128 R0
SYMATTR InstName R1
SYMATTR Value 100k
SYMBOL res 176 -128 R0
SYMATTR InstName R2
SYMATTR Value 1k
SYMBOL OpAmps\\LTC1050 320 -256 R0
SYMATTR InstName U1
SYMBOL cap 368 -320 R0
SYMATTR InstName C4
SYMATTR Value 1µ
SYMBOL res 448 -352 R0
SYMATTR InstName R3
SYMATTR Value 100k
SYMBOL res 608 -208 R90
WINDOW 0 0 56 VBottom 2
WINDOW 3 32 56 VTop 2
SYMATTR InstName R6
SYMATTR Value 1k
SYMBOL voltage 656 -384 R0
WINDOW 123 0 0 Left 0
WINDOW 39 0 0 Left 0
SYMATTR InstName V1
SYMATTR Value 5
SYMBOL capteur_graphite -384 -272 R0
SYMATTR InstName X1
SYMBOL voltage -592 -336 R0
WINDOW 3 41 78 Left 2
WINDOW 123 0 0 Left 0
WINDOW 39 0 0 Left 0
WINDOW 0 37 34 Left 2
SYMATTR Value 5
SYMATTR InstName V2
TEXT -792 280 Left 2 !.tran 2
TEXT -808 320 Left 2 !;ac dec 100 0.1 0.1G
TEXT -800 384 Left 2 !.param G0 10n\n.param G1 10n\n.param R1 100k
